lig28
     RDKit          3D

  0  0  0  0  0  0  0  0  0  0999 V3000
M  V30 BEGIN CTAB
M  V30 COUNTS 49 53 0 0 1
M  V30 BEGIN ATOM
M  V30 1 C -5.733000 -2.720000 0.708000 0
M  V30 2 O -6.678000 -1.996000 1.490000 0
M  V30 3 C -6.545000 -2.001000 2.850000 0
M  V30 4 C -5.537000 -2.681000 3.511000 0
M  V30 5 C -5.462000 -2.659000 4.907000 0
M  V30 6 C -6.408000 -1.956000 5.631000 0
M  V30 7 C -7.405000 -1.260000 4.972000 0
M  V30 8 F -8.331000 -0.576000 5.699000 0
M  V30 9 C -7.503000 -1.272000 3.581000 0
M  V30 10 C -8.563000 -0.514000 2.913000 0
M  V30 11 C -9.445000 -1.169000 2.039000 0
M  V30 12 C -10.426000 -0.393000 1.411000 0
M  V30 13 C -10.525000 0.979000 1.678000 0
M  V30 14 C -9.626000 1.554000 2.572000 0
M  V30 15 N -8.673000 0.819000 3.180000 0
M  V30 16 C -11.571000 1.458000 0.901000 0
M  V30 17 N -12.102000 0.472000 0.200000 0
M  V30 18 N -11.416000 -0.665000 0.485000 0
M  V30 19 C -11.696000 -1.897000 -0.109000 0
M  V30 20 C -12.782000 -2.022000 -0.973000 0
M  V30 21 C -13.037000 -3.245000 -1.570000 0
M  V30 22 C -12.205000 -4.313000 -1.303000 0
M  V30 23 C -11.130000 -4.146000 -0.436000 0
M  V30 24 N -10.260000 -5.177000 -0.138000 0
M  V30 25 C -9.174000 -5.050000 0.790000 0
M  V30 26 C -8.522000 -6.415000 0.879000 0
M  V30 27 C -9.109000 -7.254000 -0.219000 0
M  V30 28 C -10.335000 -6.480000 -0.728000 0
M  V30 29 N -10.887000 -2.954000 0.146000 0
M  V30 30 H -5.978568 -2.614910 -0.348765 0
M  V30 31 H -4.732948 -2.326009 0.889018 0
M  V30 32 H -5.763275 -3.773924 0.984455 0
M  V30 33 H -4.799977 -3.234584 2.948201 0
M  V30 34 H -4.668875 -3.188834 5.413585 0
M  V30 35 H -6.367774 -1.950845 6.710238 0
M  V30 36 H -9.350792 -2.232035 1.873224 0
M  V30 37 H -9.683159 2.609978 2.791190 0
M  V30 38 H -11.834512 2.504767 0.936226 0
M  V30 39 H -13.415165 -1.169838 -1.171298 0
M  V30 40 H -13.879624 -3.355325 -2.236493 0
M  V30 41 H -12.390410 -5.270910 -1.766067 0
M  V30 42 H -9.564390 -4.770434 1.768539 0
M  V30 43 H -8.452638 -4.328175 0.406977 0
M  V30 44 H -8.754859 -6.865810 1.843700 0
M  V30 45 H -7.447811 -6.314517 0.723690 0
M  V30 46 H -9.429933 -8.212127 0.189771 0
M  V30 47 H -8.383085 -7.353462 -1.026003 0
M  V30 48 H -10.281678 -6.389948 -1.812964 0
M  V30 49 H -11.243739 -6.978553 -0.390749 0
M  V30 END ATOM
M  V30 BEGIN BOND
M  V30 1 1 2 1
M  V30 2 1 3 2
M  V30 3 2 4 3
M  V30 4 1 5 4
M  V30 5 2 6 5
M  V30 6 1 7 6
M  V30 7 1 8 7
M  V30 8 1 9 3
M  V30 9 2 9 7
M  V30 10 1 10 9
M  V30 11 2 11 10
M  V30 12 1 12 11
M  V30 13 2 13 12
M  V30 14 1 14 13
M  V30 15 1 15 10
M  V30 16 2 15 14
M  V30 17 1 16 13
M  V30 18 2 17 16
M  V30 19 1 18 12
M  V30 20 1 18 17
M  V30 21 1 19 18
M  V30 22 2 20 19
M  V30 23 1 21 20
M  V30 24 2 22 21
M  V30 25 1 23 22
M  V30 26 1 24 23
M  V30 27 1 25 24
M  V30 28 1 26 25
M  V30 29 1 27 26
M  V30 30 1 28 24
M  V30 31 1 28 27
M  V30 32 1 29 19
M  V30 33 2 29 23
M  V30 34 1 30 1
M  V30 35 1 31 1
M  V30 36 1 32 1
M  V30 37 1 33 4
M  V30 38 1 34 5
M  V30 39 1 35 6
M  V30 40 1 36 11
M  V30 41 1 37 14
M  V30 42 1 38 16
M  V30 43 1 39 20
M  V30 44 1 40 21
M  V30 45 1 41 22
M  V30 46 1 42 25
M  V30 47 1 43 25
M  V30 48 1 44 26
M  V30 49 1 45 26
M  V30 50 1 46 27
M  V30 51 1 47 27
M  V30 52 1 48 28
M  V30 53 1 49 28
M  V30 END BOND
M  V30 END CTAB
M  END
>  <i_m_Source_File_Index>  (1) 
1

>  <b_m_subgroup_collapsed>  (1) 
0

>  <s_m_Source_File>  (1) 
egfr_model_0.pdb

>  <s_m_Source_Path>  (1) 
/home/emilio/Downloads/egfr/predictions/egfr

>  <s_m_entry_id>  (1) 
3

>  <s_m_entry_name>  (1) 
egfr_model_0.1_ligand

>  <s_m_subgroup_title>  (1) 
hpk1_28_split_by_structure

>  <s_m_subgroupid>  (1) 
hpk1_28_split_by_structure

>  <s_pdb_PDB_format_version>  (1) 
3.0

$$$$
