lig30
     RDKit          3D

  0  0  0  0  0  0  0  0  0  0999 V3000
M  V30 BEGIN CTAB
M  V30 COUNTS 58 62 0 0 1
M  V30 BEGIN ATOM
M  V30 1 C -8.413613 -0.520622 2.766730 0
M  V30 2 N -8.508082 0.809539 3.004265 0
M  V30 3 C -9.499078 1.550770 2.452901 0
M  V30 4 C -9.314593 -1.192903 1.921598 0
M  V30 5 C -10.333726 -0.435580 1.327455 0
M  V30 6 C -10.433085 0.932710 1.596665 0
M  V30 7 C -11.524694 1.478977 0.910929 0
M  V30 8 N -12.126048 0.532788 0.211225 0
M  V30 9 N -11.412214 -0.631412 0.446749 0
M  V30 10 C -11.800854 -1.844897 -0.191473 0
M  V30 11 C -7.293197 -1.220777 3.426375 0
M  V30 12 C -6.234696 -1.792235 2.669445 0
M  V30 13 C -5.147856 -2.410527 3.337670 0
M  V30 14 C -5.114424 -2.474590 4.741674 0
M  V30 15 O -6.307166 -1.744294 1.292733 0
M  V30 16 C -7.252552 -1.311156 4.839125 0
M  V30 17 C -6.171196 -1.931052 5.490499 0
M  V30 18 C -5.081576 -1.693835 0.574116 0
M  V30 19 F -8.266497 -0.820876 5.591376 0
M  V30 20 N -10.910745 -2.862319 -0.259934 0
M  V30 21 C -11.249466 -4.011802 -0.867318 0
M  V30 22 C -12.516029 -4.211590 -1.442564 0
M  V30 23 C -13.453677 -3.166157 -1.382314 0
M  V30 24 C -13.091817 -1.968752 -0.747491 0
M  V30 25 N -10.257742 -5.008313 -0.896473 0
M  V30 26 C -9.018176 -4.869505 -0.152695 0
M  V30 27 C -8.628844 -6.299576 0.235978 0 CFG=1
M  V30 28 C -9.232971 -7.130686 -0.910398 0
M  V30 29 C -10.540273 -6.393600 -1.226353 0
M  V30 30 N -7.163541 -6.476528 0.442522 0 CHG=1
M  V30 31 C -6.612342 -5.563426 1.478540 0
M  V30 32 C -6.781675 -7.886279 0.710410 0
M  V30 33 H -6.722272 -6.216126 -0.429990 0
M  V30 34 H -9.536330 2.605282 2.683639 0
M  V30 35 H -9.224655 -2.247472 1.729817 0
M  V30 36 H -11.835618 2.513626 0.938988 0
M  V30 37 H -4.322254 -2.840845 2.791603 0
M  V30 38 H -4.278820 -2.936550 5.248320 0
M  V30 39 H -6.156613 -1.977898 6.570136 0
M  V30 40 H -5.280294 -1.389201 -0.453487 0
M  V30 41 H -4.391801 -0.965528 1.004310 0
M  V30 42 H -4.597534 -2.669951 0.539699 0
M  V30 43 H -12.785456 -5.131649 -1.938406 0
M  V30 44 H -14.435295 -3.279489 -1.818750 0
M  V30 45 H -13.794724 -1.149700 -0.691314 0
M  V30 46 H -9.132716 -4.250212 0.736976 0
M  V30 47 H -8.284408 -4.395833 -0.806333 0
M  V30 48 H -9.155571 -6.556892 1.158211 0
M  V30 49 H -9.409656 -8.174973 -0.648502 0
M  V30 50 H -8.587356 -7.105384 -1.790040 0
M  V30 51 H -11.359869 -6.754929 -0.602177 0
M  V30 52 H -10.829950 -6.506401 -2.272579 0
M  V30 53 H -5.537483 -5.708761 1.597996 0
M  V30 54 H -6.758032 -4.514330 1.216931 0
M  V30 55 H -7.082304 -5.734945 2.448582 0
M  V30 56 H -5.702322 -7.980875 0.840834 0
M  V30 57 H -7.262357 -8.261545 1.615902 0
M  V30 58 H -7.058243 -8.542902 -0.115524 0
M  V30 END ATOM
M  V30 BEGIN BOND
M  V30 1 2 2 1
M  V30 2 1 3 2
M  V30 3 1 4 1
M  V30 4 2 5 4
M  V30 5 2 6 3
M  V30 6 1 6 5
M  V30 7 1 7 6
M  V30 8 2 8 7
M  V30 9 1 9 5
M  V30 10 1 9 8
M  V30 11 1 10 9
M  V30 12 1 11 1
M  V30 13 2 12 11
M  V30 14 1 13 12
M  V30 15 2 14 13
M  V30 16 1 15 12
M  V30 17 1 16 11
M  V30 18 1 17 14
M  V30 19 2 17 16
M  V30 20 1 18 15
M  V30 21 1 19 16
M  V30 22 2 20 10
M  V30 23 1 21 20
M  V30 24 2 22 21
M  V30 25 1 23 22
M  V30 26 1 24 10
M  V30 27 2 24 23
M  V30 28 1 25 21
M  V30 29 1 26 25
M  V30 30 1 27 26
M  V30 31 1 28 27
M  V30 32 1 29 25
M  V30 33 1 29 28
M  V30 34 1 30 27
M  V30 35 1 31 30
M  V30 36 1 32 30
M  V30 37 1 33 30
M  V30 38 1 34 3
M  V30 39 1 35 4
M  V30 40 1 36 7
M  V30 41 1 37 13
M  V30 42 1 38 14
M  V30 43 1 39 17
M  V30 44 1 40 18
M  V30 45 1 41 18
M  V30 46 1 42 18
M  V30 47 1 43 22
M  V30 48 1 44 23
M  V30 49 1 45 24
M  V30 50 1 46 26
M  V30 51 1 47 26
M  V30 52 1 27 48 CFG=3
M  V30 53 1 49 28
M  V30 54 1 50 28
M  V30 55 1 51 29
M  V30 56 1 52 29
M  V30 57 1 53 31
M  V30 58 1 54 31
M  V30 59 1 55 31
M  V30 60 1 56 32
M  V30 61 1 57 32
M  V30 62 1 58 32
M  V30 END BOND
M  V30 BEGIN COLLECTION
M  V30 MDLV30/STERAC1 ATOMS=(1 27)
M  V30 END COLLECTION
M  V30 END CTAB
M  END
>  <i_m_Source_File_Index>  (1) 
1

>  <s_m_Source_File>  (1) 
lig30.sdf

>  <s_m_Source_Path>  (1) 
/home/emilio/Downloads

>  <s_m_entry_id>  (1) 
4

>  <s_m_entry_name>  (1) 
lig30.1

$$$$
