1H1S
                    3D
 Schrodinger Suite 2022-2.
 50 53  0  0  1  0            999 V2000
    7.6500   43.8340   49.7640 C   0  0  0  0  0  0
   10.4750   46.4910   51.9330 C   0  0  0  0  0  0
    4.8960   45.7490   51.7150 C   0  0  0  0  0  0
    3.9390   46.1020   52.8920 C   0  0  0  0  0  0
    4.2880   45.4670   54.2670 C   0  0  0  0  0  0
    3.3970   45.8570   55.4410 C   0  0  0  0  0  0
    1.8520   45.5580   55.1100 C   0  0  0  0  0  0
    1.5320   46.2430   53.7850 C   0  0  0  0  0  0
    2.4500   45.8720   52.5650 C   0  0  0  0  0  0
    4.4350   40.8130   47.8880 C   0  0  0  0  0  0
    3.6020   40.7530   48.9770 C   0  0  0  0  0  0
    4.0230   41.4320   50.1800 C   0  0  0  0  0  0
    5.2240   42.1010   50.1750 C   0  0  0  0  0  0
    1.0630   40.4980   49.8460 N   0  0  0  0  0  0
    6.6580   44.5200   50.5610 N   0  0  0  0  0  0
    7.0800   45.4670   51.3690 C   0  0  0  0  0  0
    6.2540   46.2290   52.0730 O   0  0  0  0  0  0
    8.4650   45.7670   51.5400 C   0  0  0  0  0  0
    9.2320   46.7290   52.2560 N   0  0  0  0  0  0
   10.5880   45.5050   51.0470 N   0  0  0  0  0  0
    9.3620   45.1110   50.8140 C   0  0  0  0  0  0
    8.8790   44.0990   49.9700 N   0  0  0  0  0  0
    7.2860   42.8560   48.9780 N   0  0  0  0  0  0
    6.0650   42.2250   49.0670 C   0  0  0  0  0  0
    5.6110   41.5340   47.9220 C   0  0  0  0  0  0
    2.1470   39.7960   48.9300 S   0  0  0  0  0  0
    2.4550   38.5120   49.5420 O   0  0  0  0  0  0
    1.5530   39.7400   47.5990 O   0  0  0  0  0  0
   11.2693   47.0721   52.3778 H   0  0  0  0  0  0
    4.5595   46.2543   50.8097 H   0  0  0  0  0  0
    4.9179   44.6680   51.5769 H   0  0  0  0  0  0
    4.0411   47.1777   53.0356 H   0  0  0  0  0  0
    5.3256   45.6921   54.5135 H   0  0  0  0  0  0
    4.2981   44.3815   54.1690 H   0  0  0  0  0  0
    3.5234   46.9181   55.6557 H   0  0  0  0  0  0
    3.6944   45.2933   56.3253 H   0  0  0  0  0  0
    1.2248   45.9781   55.8962 H   0  0  0  0  0  0
    1.7046   44.4829   55.0073 H   0  0  0  0  0  0
    1.5435   47.3236   53.9275 H   0  0  0  0  0  0
    0.4916   46.0502   53.5232 H   0  0  0  0  0  0
    2.2944   44.8266   52.2986 H   0  0  0  0  0  0
    2.1701   46.4776   51.7030 H   0  0  0  0  0  0
    4.1753   40.2891   46.9800 H   0  0  0  0  0  0
    3.3981   41.4078   51.0605 H   0  0  0  0  0  0
    5.5790   42.5801   51.0755 H   0  0  0  0  0  0
    0.1453   40.0884   49.9468 H   0  0  0  0  0  0
    1.2892   41.3554   50.3295 H   0  0  0  0  0  0
   11.5002   45.2275   50.7138 H   0  0  0  0  0  0
    7.9136   42.5258   48.2589 H   0  0  0  0  0  0
    6.2357   41.5899   47.0428 H   0  0  0  0  0  0
  1 15  2  0  0  0
  1 22  1  0  0  0
  1 23  1  0  0  0
  2 19  2  0  0  0
  2 20  1  0  0  0
  2 29  1  0  0  0
  3  4  1  0  0  0
  3 17  1  0  0  0
  3 30  1  0  0  0
  3 31  1  0  0  0
  4  5  1  0  0  0
  4  9  1  0  0  0
  4 32  1  0  0  0
  5  6  1  0  0  0
  5 33  1  0  0  0
  5 34  1  0  0  0
  6  7  1  0  0  0
  6 35  1  0  0  0
  6 36  1  0  0  0
  7  8  1  0  0  0
  7 37  1  0  0  0
  7 38  1  0  0  0
  8  9  1  0  0  0
  8 39  1  0  0  0
  8 40  1  0  0  0
  9 41  1  0  0  0
  9 42  1  0  0  0
 10 11  2  0  0  0
 10 25  1  0  0  0
 10 43  1  0  0  0
 11 12  1  0  0  0
 11 26  1  0  0  0
 12 13  2  0  0  0
 12 44  1  0  0  0
 13 24  1  0  0  0
 13 45  1  0  0  0
 14 26  1  0  0  0
 14 46  1  0  0  0
 14 47  1  0  0  0
 15 16  1  0  0  0
 16 17  1  0  0  0
 16 18  2  0  0  0
 18 19  1  0  0  0
 18 21  1  0  0  0
 20 21  1  0  0  0
 20 48  1  0  0  0
 21 22  2  0  0  0
 23 24  1  0  0  0
 23 49  1  0  0  0
 24 25  2  0  0  0
 25 50  1  0  0  0
 26 27  2  0  0  0
 26 28  2  0  0  0
M  END
> <s_m_entry_id>
3

> <s_m_entry_name>
1h1s.1

> <s_pdb_PDB_TITLE>
STRUCTURE OF HUMAN THR160-PHOSPHO CDK2/CYCLIN A COMPLEXED WITH THE INHIBITOR NU6102

> <s_pdb_PDB_ID>
1H1S

> <r_pdb_PDB_CRYST1_a>
74.23

> <r_pdb_PDB_CRYST1_b>
135.35

> <r_pdb_PDB_CRYST1_c>
148.46

> <r_pdb_PDB_CRYST1_alpha>
90

> <r_pdb_PDB_CRYST1_beta>
90

> <r_pdb_PDB_CRYST1_gamma>
90

> <s_pdb_PDB_CRYST1_Space_Group>
P 21 21 21

> <i_pdb_PDB_CRYST1_z>
8

> <s_pdb_PDB_CLASSIFICATION>
TRANSFERASE

> <s_pdb_PDB_DEPOSITION_DATE>
21-JUL-02

> <s_pdb_PDB_format_version>
3.15

> <r_pdb_PDB_R>
0.236

> <r_pdb_PDB_Rfree>
0.286

> <r_pdb_PDB_RESOLUTION>
2

> <s_pdb_PDB_EXPDTA>
X-RAY DIFFRACTION

> <r_pdb_PDB_EXPDTA_TEMPERATURE>
100

> <r_pdb_PDB_EXPDTA_PH>
7

> <s_pdb_PDB_REMARK_350_Biomolecule_1_Transform_1_Chains>
A, B

> <s_pdb_PDB_REMARK_350_Biomolecule_1_Transform_1_Matrix_1>
1.000000 0.000000 0.000000   0.000000;0.000000 1.000000 0.000000   0.000000;0.000000 0.000000 1.000000   0.000000

> <s_pdb_PDB_REMARK_350_Biomolecule_2_Transform_1_Chains>
C, D

> <s_pdb_PDB_REMARK_350_Biomolecule_2_Transform_1_Matrix_1>
1.000000 0.000000 0.000000   0.000000;0.000000 1.000000 0.000000   0.000000;0.000000 0.000000 1.000000   0.000000

> <s_m_Source_Path>
/Users/sheenam

> <s_m_Source_File>
1h1s.pdb

> <i_m_Source_File_Index>
1

$$$$
