1OI9
                    3D
 Schrodinger Suite 2022-2.
 46 49  0  0  1  0            999 V2000
    7.9430   43.7940   49.8040 C   0  0  0  0  0  0
    2.8750   40.0740   48.9520 O   0  0  0  0  0  0
   10.6830   46.4870   52.0230 C   0  0  0  0  0  0
    4.9330   45.9430   51.6860 C   0  0  0  0  0  0
    4.0360   46.1890   52.8930 C   0  0  0  0  0  0
    2.6070   45.7530   52.5480 C   0  0  0  0  0  0
    1.6340   45.8910   53.7310 C   0  0  0  0  0  0
    2.1950   45.3580   55.0540 C   0  0  0  0  0  0
    3.6340   45.8150   55.3170 C   0  0  0  0  0  0
    4.5400   45.4600   54.1420 C   0  0  0  0  0  0
    4.4640   41.3480   50.0690 C   0  0  0  0  0  0
    4.0280   40.7240   48.9090 C   0  0  0  0  0  0
    4.7660   40.8070   47.7340 C   0  0  0  0  0  0
    5.9740   41.5130   47.7500 C   0  0  0  0  0  0
    6.9900   44.4610   50.5040 N   0  0  0  0  0  0
    7.2750   45.4390   51.3880 C   0  0  0  0  0  0
    6.2950   46.1090   52.0700 O   0  0  0  0  0  0
    8.6840   45.7920   51.5760 C   0  0  0  0  0  0
    9.3440   46.7070   52.3490 N   0  0  0  0  0  0
   10.9380   45.4970   51.0720 N   0  0  0  0  0  0
    9.6430   45.0600   50.8010 C   0  0  0  0  0  0
    9.2660   44.0820   49.9480 N   0  0  0  0  0  0
    7.5750   42.8240   48.9260 N   0  0  0  0  0  0
    6.4030   42.1440   48.9250 C   0  0  0  0  0  0
    5.6420   42.0570   50.0830 C   0  0  0  0  0  0
    2.6907   39.6911   48.0912 H   0  0  0  0  0  0
   11.4576   47.0694   52.4998 H   0  0  0  0  0  0
    4.6878   46.6571   50.8999 H   0  0  0  0  0  0
    4.7799   44.9275   51.3208 H   0  0  0  0  0  0
    4.0271   47.2589   53.1009 H   0  0  0  0  0  0
    2.6168   44.7180   52.2061 H   0  0  0  0  0  0
    2.2413   46.3432   51.7077 H   0  0  0  0  0  0
    0.7044   45.3720   53.4971 H   0  0  0  0  0  0
    1.3573   46.9384   53.8514 H   0  0  0  0  0  0
    2.1557   44.2687   55.0514 H   0  0  0  0  0  0
    1.5561   45.6827   55.8753 H   0  0  0  0  0  0
    4.0077   45.3349   56.2214 H   0  0  0  0  0  0
    3.6493   46.8935   55.4742 H   0  0  0  0  0  0
    5.5596   45.7773   54.3609 H   0  0  0  0  0  0
    4.5087   44.3838   53.9717 H   0  0  0  0  0  0
    3.8764   41.2795   50.9726 H   0  0  0  0  0  0
    4.4038   40.3322   46.8341 H   0  0  0  0  0  0
    6.5769   41.5720   46.8559 H   0  0  0  0  0  0
   11.8876   45.3013   50.7889 H   0  0  0  0  0  0
    8.2034   42.5491   48.1846 H   0  0  0  0  0  0
    5.9698   42.5417   50.9908 H   0  0  0  0  0  0
  1 15  2  0  0  0
  1 22  1  0  0  0
  1 23  1  0  0  0
  2 12  1  0  0  0
  2 26  1  0  0  0
  3 19  2  0  0  0
  3 20  1  0  0  0
  3 27  1  0  0  0
  4  5  1  0  0  0
  4 17  1  0  0  0
  4 28  1  0  0  0
  4 29  1  0  0  0
  5  6  1  0  0  0
  5 10  1  0  0  0
  5 30  1  0  0  0
  6  7  1  0  0  0
  6 31  1  0  0  0
  6 32  1  0  0  0
  7  8  1  0  0  0
  7 33  1  0  0  0
  7 34  1  0  0  0
  8  9  1  0  0  0
  8 35  1  0  0  0
  8 36  1  0  0  0
  9 10  1  0  0  0
  9 37  1  0  0  0
  9 38  1  0  0  0
 10 39  1  0  0  0
 10 40  1  0  0  0
 11 12  2  0  0  0
 11 25  1  0  0  0
 11 41  1  0  0  0
 12 13  1  0  0  0
 13 14  2  0  0  0
 13 42  1  0  0  0
 14 24  1  0  0  0
 14 43  1  0  0  0
 15 16  1  0  0  0
 16 17  1  0  0  0
 16 18  2  0  0  0
 18 19  1  0  0  0
 18 21  1  0  0  0
 20 21  1  0  0  0
 20 44  1  0  0  0
 21 22  2  0  0  0
 23 24  1  0  0  0
 23 45  1  0  0  0
 24 25  2  0  0  0
 25 46  1  0  0  0
M  END
> <s_m_entry_id>
4

> <s_m_entry_name>
1oi9.1

> <s_pdb_PDB_TITLE>
STRUCTURE OF HUMAN THR160-PHOSPHO CDK2/CYCLIN A COMPLEXED WITH A 6-CYCLOHEXYLMETHYLOXY-2-ANILINO-PURINE INHIBITOR

> <s_pdb_PDB_ID>
1OI9

> <r_pdb_PDB_CRYST1_a>
74.122

> <r_pdb_PDB_CRYST1_b>
134.732

> <r_pdb_PDB_CRYST1_c>
148.244

> <r_pdb_PDB_CRYST1_alpha>
90

> <r_pdb_PDB_CRYST1_beta>
90

> <r_pdb_PDB_CRYST1_gamma>
90

> <s_pdb_PDB_CRYST1_Space_Group>
P 21 21 21

> <i_pdb_PDB_CRYST1_z>
8

> <s_pdb_PDB_CLASSIFICATION>
KINASE

> <s_pdb_PDB_DEPOSITION_DATE>
10-JUN-03

> <s_pdb_PDB_format_version>
3.15

> <r_pdb_PDB_R>
0.233

> <r_pdb_PDB_Rfree>
0.2764

> <r_pdb_PDB_RESOLUTION>
2.1

> <s_pdb_PDB_EXPDTA>
X-RAY DIFFRACTION

> <r_pdb_PDB_EXPDTA_TEMPERATURE>
100

> <r_pdb_PDB_EXPDTA_PH>
7

> <s_pdb_PDB_REMARK_350_Biomolecule_1_Transform_1_Chains>
A, B

> <s_pdb_PDB_REMARK_350_Biomolecule_1_Transform_1_Matrix_1>
1.000000 0.000000 0.000000   0.000000;0.000000 1.000000 0.000000   0.000000;0.000000 0.000000 1.000000   0.000000

> <s_pdb_PDB_REMARK_350_Biomolecule_2_Transform_1_Chains>
C, D

> <s_pdb_PDB_REMARK_350_Biomolecule_2_Transform_1_Matrix_1>
1.000000 0.000000 0.000000   0.000000;0.000000 1.000000 0.000000   0.000000;0.000000 0.000000 1.000000   0.000000

> <s_m_Source_Path>
/Users/sheenam

> <s_m_Source_File>
1oi9.pdb

> <i_m_Source_File_Index>
1

$$$$
