1OIU
                    3D
 Schrodinger Suite 2022-2.
 50 53  0  0  1  0            999 V2000
    7.9160   43.6120   49.8510 C   0  0  0  0  0  0
   10.5520   46.4410   52.0420 C   0  0  0  0  0  0
    4.8670   45.3510   51.9070 C   0  0  0  0  0  0
    4.0240   45.8620   53.0570 C   0  0  0  0  0  0
    2.5620   45.5450   52.7500 C   0  0  0  0  0  0
    1.6820   46.0090   53.9120 C   0  0  0  0  0  0
    2.1170   45.3790   55.2320 C   0  0  0  0  0  0
    3.6010   45.6060   55.5280 C   0  0  0  0  0  0
    4.4730   45.1740   54.3530 C   0  0  0  0  0  0
    3.9800   40.7090   48.5370 C   0  0  0  0  0  0
    4.8080   40.9170   47.4370 C   0  0  0  0  0  0
    7.6260   42.6110   48.9930 N   0  0  0  0  0  0
    6.0320   41.5580   47.6210 C   0  0  0  0  0  0
    6.4230   41.9980   48.8840 C   0  0  0  0  0  0
    4.0430   38.8600   46.0080 N   0  0  0  0  0  0
    6.9350   44.2280   50.5510 N   0  0  0  0  0  0
    7.1960   45.2310   51.4250 C   0  0  0  0  0  0
    6.1920   45.8270   52.1090 O   0  0  0  0  0  0
    8.5840   45.6720   51.6220 C   0  0  0  0  0  0
    9.2230   46.6190   52.3980 N   0  0  0  0  0  0
   10.8110   45.4370   51.1020 N   0  0  0  0  0  0
    9.5550   44.9660   50.8410 C   0  0  0  0  0  0
    9.2100   43.9690   49.9980 N   0  0  0  0  0  0
    5.5980   41.7740   49.9860 C   0  0  0  0  0  0
    4.3750   41.1310   49.8100 C   0  0  0  0  0  0
    4.3510   40.4270   45.9660 S   0  0  0  0  0  0
    5.3810   40.6740   45.0070 O   0  0  0  0  0  0
    3.1650   41.1500   45.6150 O   0  0  0  0  0  0
   11.3175   47.0605   52.4855 H   0  0  0  0  0  0
    4.4785   45.7468   50.9686 H   0  0  0  0  0  0
    4.8681   44.2610   51.9144 H   0  0  0  0  0  0
    4.1517   46.9403   53.1526 H   0  0  0  0  0  0
    2.4447   44.4701   52.6124 H   0  0  0  0  0  0
    2.2621   46.0620   51.8385 H   0  0  0  0  0  0
    0.6441   45.7452   53.7088 H   0  0  0  0  0  0
    1.7325   47.0947   53.9942 H   0  0  0  0  0  0
    1.9120   44.3087   55.2076 H   0  0  0  0  0  0
    1.5184   45.7906   56.0446 H   0  0  0  0  0  0
    3.8841   45.0418   56.4166 H   0  0  0  0  0  0
    3.7718   46.6619   55.7376 H   0  0  0  0  0  0
    5.5122   45.4304   54.5588 H   0  0  0  0  0  0
    4.4082   44.0928   54.2312 H   0  0  0  0  0  0
    3.0260   40.2190   48.4098 H   0  0  0  0  0  0
    8.3361   42.2626   48.3650 H   0  0  0  0  0  0
    6.6894   41.7186   46.7793 H   0  0  0  0  0  0
    3.7424   38.3818   45.1707 H   0  0  0  0  0  0
    4.1489   38.3475   46.8719 H   0  0  0  0  0  0
   11.7599   45.2510   50.8102 H   0  0  0  0  0  0
    5.9088   42.0985   50.9681 H   0  0  0  0  0  0
    3.7313   40.9587   50.6599 H   0  0  0  0  0  0
  1 12  1  0  0  0
  1 16  2  0  0  0
  1 23  1  0  0  0
  2 20  2  0  0  0
  2 21  1  0  0  0
  2 29  1  0  0  0
  3  4  1  0  0  0
  3 18  1  0  0  0
  3 30  1  0  0  0
  3 31  1  0  0  0
  4  5  1  0  0  0
  4  9  1  0  0  0
  4 32  1  0  0  0
  5  6  1  0  0  0
  5 33  1  0  0  0
  5 34  1  0  0  0
  6  7  1  0  0  0
  6 35  1  0  0  0
  6 36  1  0  0  0
  7  8  1  0  0  0
  7 37  1  0  0  0
  7 38  1  0  0  0
  8  9  1  0  0  0
  8 39  1  0  0  0
  8 40  1  0  0  0
  9 41  1  0  0  0
  9 42  1  0  0  0
 10 11  2  0  0  0
 10 25  1  0  0  0
 10 43  1  0  0  0
 11 13  1  0  0  0
 11 26  1  0  0  0
 12 14  1  0  0  0
 12 44  1  0  0  0
 13 14  2  0  0  0
 13 45  1  0  0  0
 14 24  1  0  0  0
 15 26  1  0  0  0
 15 46  1  0  0  0
 15 47  1  0  0  0
 16 17  1  0  0  0
 17 18  1  0  0  0
 17 19  2  0  0  0
 19 20  1  0  0  0
 19 22  1  0  0  0
 21 22  1  0  0  0
 21 48  1  0  0  0
 22 23  2  0  0  0
 24 25  2  0  0  0
 24 49  1  0  0  0
 25 50  1  0  0  0
 26 27  2  0  0  0
 26 28  2  0  0  0
M  END
> <s_m_entry_id>
5

> <s_m_entry_name>
1oiu.1

> <s_pdb_PDB_TITLE>
STRUCTURE OF HUMAN THR160-PHOSPHO CDK2/CYCLIN A COMPLEXED WITH A 6-CYCLOHEXYLMETHYLOXY-2-ANILINO-PURINE INHIBITOR

> <s_pdb_PDB_ID>
1OIU

> <r_pdb_PDB_CRYST1_a>
73.648

> <r_pdb_PDB_CRYST1_b>
133.778

> <r_pdb_PDB_CRYST1_c>
148.228

> <r_pdb_PDB_CRYST1_alpha>
90

> <r_pdb_PDB_CRYST1_beta>
90

> <r_pdb_PDB_CRYST1_gamma>
90

> <s_pdb_PDB_CRYST1_Space_Group>
P 21 21 21

> <i_pdb_PDB_CRYST1_z>
8

> <s_pdb_PDB_CLASSIFICATION>
KINASE

> <s_pdb_PDB_DEPOSITION_DATE>
26-JUN-03

> <s_pdb_PDB_format_version>
3.15

> <r_pdb_PDB_R>
0.2158

> <r_pdb_PDB_Rfree>
0.2532

> <r_pdb_PDB_RESOLUTION>
2

> <s_pdb_PDB_EXPDTA>
X-RAY DIFFRACTION

> <r_pdb_PDB_EXPDTA_TEMPERATURE>
100

> <r_pdb_PDB_EXPDTA_PH>
7

> <s_pdb_PDB_REMARK_350_Biomolecule_1_Transform_1_Chains>
A, B

> <s_pdb_PDB_REMARK_350_Biomolecule_1_Transform_1_Matrix_1>
1.000000 0.000000 0.000000   0.000000;0.000000 1.000000 0.000000   0.000000;0.000000 0.000000 1.000000   0.000000

> <s_pdb_PDB_REMARK_350_Biomolecule_2_Transform_1_Chains>
C, D

> <s_pdb_PDB_REMARK_350_Biomolecule_2_Transform_1_Matrix_1>
1.000000 0.000000 0.000000   0.000000;0.000000 1.000000 0.000000   0.000000;0.000000 0.000000 1.000000   0.000000

> <s_m_Source_Path>
/Users/sheenam

> <s_m_Source_File>
1oiu.pdb

> <i_m_Source_File_Index>
1

$$$$
