1OIY
                    3D
 Schrodinger Suite 2022-2.
 49 52  0  0  1  0            999 V2000
    7.8810   43.6980   49.5180 C   0  0  0  0  0  0
    4.8200   45.4890   51.6160 C   0  0  0  0  0  0
    3.9450   46.0810   52.7150 C   0  0  0  0  0  0
    2.4610   45.7880   52.4180 C   0  0  0  0  0  0
    1.5010   46.0030   53.6110 C   0  0  0  0  0  0
    2.0960   45.5600   54.9590 C   0  0  0  0  0  0
    3.5120   46.1240   55.1780 C   0  0  0  0  0  0
    4.4390   45.5910   54.0960 C   0  0  0  0  0  0
    4.6900   40.7610   47.3980 C   0  0  0  0  0  0
    3.8070   40.8290   48.4620 C   0  0  0  0  0  0
    4.2100   41.5200   49.6130 C   0  0  0  0  0  0
    5.4670   42.1260   49.7170 C   0  0  0  0  0  0
    1.8670   39.6660   49.4840 N   0  0  0  0  0  0
    6.8780   44.4040   50.1330 N   0  0  0  0  0  0
    7.1250   45.4480   50.9660 C   0  0  0  0  0  0
    6.0940   46.1500   51.5500 O   0  0  0  0  0  0
    8.5350   45.8060   51.2070 C   0  0  0  0  0  0
    9.1820   46.7570   51.9440 N   0  0  0  0  0  0
   10.8140   45.4530   50.8500 N   0  0  0  0  0  0
    9.5360   45.0150   50.5430 C   0  0  0  0  0  0
    9.1970   44.0060   49.7220 N   0  0  0  0  0  0
    7.5800   42.6460   48.6920 N   0  0  0  0  0  0
    6.3480   42.0640   48.6390 C   0  0  0  0  0  0
    5.9500   41.3700   47.4870 C   0  0  0  0  0  0
    2.4220   40.2080   48.3820 C   0  0  0  0  0  0
   10.5380   46.5190   51.7020 C   0  0  0  0  0  0
    1.8160   40.2550   47.3140 O   0  0  0  0  0  0
    4.3116   45.5845   50.6566 H   0  0  0  0  0  0
    4.9719   44.4265   51.8061 H   0  0  0  0  0  0
    4.0752   47.1629   52.6876 H   0  0  0  0  0  0
    2.3611   44.7652   52.0546 H   0  0  0  0  0  0
    2.1339   46.3997   51.5772 H   0  0  0  0  0  0
    0.5722   45.4620   53.4301 H   0  0  0  0  0  0
    1.2229   47.0555   53.6666 H   0  0  0  0  0  0
    2.1290   44.4713   55.0005 H   0  0  0  0  0  0
    1.4451   45.8900   55.7686 H   0  0  0  0  0  0
    3.8793   45.8134   56.1561 H   0  0  0  0  0  0
    3.4814   47.2123   55.1261 H   0  0  0  0  0  0
    5.4503   45.9581   54.2711 H   0  0  0  0  0  0
    4.4337   44.5012   54.1178 H   0  0  0  0  0  0
    4.4093   40.2378   46.4959 H   0  0  0  0  0  0
    3.5417   41.5979   50.4578 H   0  0  0  0  0  0
    5.7470   42.6360   50.6269 H   0  0  0  0  0  0
    0.9469   39.2524   49.4348 H   0  0  0  0  0  0
    2.3712   39.6734   50.3591 H   0  0  0  0  0  0
   11.6169   44.9848   50.4547 H   0  0  0  0  0  0
    8.2886   42.2641   48.0820 H   0  0  0  0  0  0
    6.6384   41.3105   46.6569 H   0  0  0  0  0  0
   11.2870   47.1441   52.1652 H   0  0  0  0  0  0
  1 14  2  0  0  0
  1 21  1  0  0  0
  1 22  1  0  0  0
  2  3  1  0  0  0
  2 16  1  0  0  0
  2 28  1  0  0  0
  2 29  1  0  0  0
  3  4  1  0  0  0
  3  8  1  0  0  0
  3 30  1  0  0  0
  4  5  1  0  0  0
  4 31  1  0  0  0
  4 32  1  0  0  0
  5  6  1  0  0  0
  5 33  1  0  0  0
  5 34  1  0  0  0
  6  7  1  0  0  0
  6 35  1  0  0  0
  6 36  1  0  0  0
  7  8  1  0  0  0
  7 37  1  0  0  0
  7 38  1  0  0  0
  8 39  1  0  0  0
  8 40  1  0  0  0
  9 10  2  0  0  0
  9 24  1  0  0  0
  9 41  1  0  0  0
 10 11  1  0  0  0
 10 25  1  0  0  0
 11 12  2  0  0  0
 11 42  1  0  0  0
 12 23  1  0  0  0
 12 43  1  0  0  0
 13 25  1  0  0  0
 13 44  1  0  0  0
 13 45  1  0  0  0
 14 15  1  0  0  0
 15 16  1  0  0  0
 15 17  2  0  0  0
 17 18  1  0  0  0
 17 20  1  0  0  0
 18 26  2  0  0  0
 19 20  1  0  0  0
 19 26  1  0  0  0
 19 46  1  0  0  0
 20 21  2  0  0  0
 22 23  1  0  0  0
 22 47  1  0  0  0
 23 24  2  0  0  0
 24 48  1  0  0  0
 25 27  2  0  0  0
 26 49  1  0  0  0
M  END
> <s_m_entry_id>
6

> <s_m_entry_name>
1oiy.1

> <s_pdb_PDB_TITLE>
STRUCTURE OF HUMAN THR160-PHOSPHO CDK2/CYCLIN A COMPLEXED WITH A 6-CYCLOHEXYLMETHYLOXY-2-ANILINO-PURINE INHIBITOR

> <s_pdb_PDB_ID>
1OIY

> <r_pdb_PDB_CRYST1_a>
73.997

> <r_pdb_PDB_CRYST1_b>
134.872

> <r_pdb_PDB_CRYST1_c>
147.865

> <r_pdb_PDB_CRYST1_alpha>
90

> <r_pdb_PDB_CRYST1_beta>
90

> <r_pdb_PDB_CRYST1_gamma>
90

> <s_pdb_PDB_CRYST1_Space_Group>
P 21 21 21

> <i_pdb_PDB_CRYST1_z>
8

> <s_pdb_PDB_CLASSIFICATION>
KINASE

> <s_pdb_PDB_DEPOSITION_DATE>
26-JUN-03

> <s_pdb_PDB_format_version>
3.15

> <r_pdb_PDB_R>
0.244

> <r_pdb_PDB_Rfree>
0.309

> <r_pdb_PDB_RESOLUTION>
2.4

> <s_pdb_PDB_EXPDTA>
X-RAY DIFFRACTION

> <r_pdb_PDB_EXPDTA_TEMPERATURE>
100

> <r_pdb_PDB_EXPDTA_PH>
7

> <s_pdb_PDB_REMARK_350_Biomolecule_1_Transform_1_Chains>
A, B

> <s_pdb_PDB_REMARK_350_Biomolecule_1_Transform_1_Matrix_1>
1.000000 0.000000 0.000000   0.000000;0.000000 1.000000 0.000000   0.000000;0.000000 0.000000 1.000000   0.000000

> <s_pdb_PDB_REMARK_350_Biomolecule_2_Transform_1_Chains>
C, D

> <s_pdb_PDB_REMARK_350_Biomolecule_2_Transform_1_Matrix_1>
1.000000 0.000000 0.000000   0.000000;0.000000 1.000000 0.000000   0.000000;0.000000 0.000000 1.000000   0.000000

> <s_m_Source_Path>
/Users/sheenam

> <s_m_Source_File>
1oiy.pdb

> <i_m_Source_File_Index>
1

$$$$
