but
 OpenBabel06102322073D

 14 13  0  0  0  0  0  0  0  0999 V2000
   32.0260   33.1320   29.1930 C   0  0  0  0  0  0  0  0  0  0  0  0
   32.8370   32.2790   28.7720 O   0  0  0  0  0  0  0  0  0  0  0  0
   31.2440   32.9900   30.5050 C   0  0  0  0  0  0  0  0  0  0  0  0
   32.0390   34.5000   28.5330 C   0  0  0  0  0  0  0  0  0  0  0  0
   30.6560   35.0150   28.2100 C   0  0  0  0  0  0  0  0  0  0  0  0
   30.9380   33.9890   30.8370 H   0  0  0  0  0  0  0  0  0  0  0  0
   30.3770   32.3570   30.2800 H   0  0  0  0  0  0  0  0  0  0  0  0
   31.8900   32.5240   31.2600 H   0  0  0  0  0  0  0  0  0  0  0  0
   32.4380   35.1390   29.3300 H   0  0  0  0  0  0  0  0  0  0  0  0
   32.7380   34.5770   27.6910 H   0  0  0  0  0  0  0  0  0  0  0  0
   29.9630   34.6420   28.9750 H   0  0  0  0  0  0  0  0  0  0  0  0
   30.6590   36.4300   28.1680 O   0  0  0  0  0  0  0  0  0  0  0  0
   30.2750   34.5730   27.2810 H   0  0  0  0  0  0  0  0  0  0  0  0
   29.8240   36.7700   28.5340 H   0  0  0  0  0  0  0  0  0  0  0  0
  1  2  2  0  0  0  0
  1  3  1  0  0  0  0
  1  4  1  0  0  0  0
  3  6  1  0  0  0  0
  3  7  1  0  0  0  0
  3  8  1  0  0  0  0
  4  5  1  0  0  0  0
  4  9  1  0  0  0  0
  4 10  1  0  0  0  0
  5 11  1  0  0  0  0
  5 12  1  0  0  0  0
  5 13  1  0  0  0  0
 12 14  1  0  0  0  0
M  END
$$$$
