dap
 OpenBabel06102322103D

 27 26  0  0  0  0  0  0  0  0999 V2000
   25.6380   33.7039   30.1098 C   0  0  0  0  0  0  0  0  0  0  0  0
   25.6803   32.4938   30.1050 O   0  0  0  0  0  0  0  0  0  0  0  0
   24.6605   34.5167   31.0032 C   0  0  0  0  0  0  0  0  0  0  0  0
   26.8743   34.5323   29.5757 C   0  0  0  0  0  0  0  0  0  0  0  0
   27.6150   33.8451   28.3975 C   0  0  0  0  0  0  0  0  0  0  0  0
   23.9203   33.8358   31.4421 H   0  0  0  0  0  0  0  0  0  0  0  0
   25.2270   34.9217   31.8497 H   0  0  0  0  0  0  0  0  0  0  0  0
   24.2476   35.2770   30.3283 H   0  0  0  0  0  0  0  0  0  0  0  0
   26.5072   35.5302   29.3061 H   0  0  0  0  0  0  0  0  0  0  0  0
   27.4018   34.6663   30.5289 H   0  0  0  0  0  0  0  0  0  0  0  0
   27.0467   34.0208   27.4763 H   0  0  0  0  0  0  0  0  0  0  0  0
   28.9881   34.5489   28.2779 N   0  0  0  0  0  0  0  0  0  0  0  0
   27.7118   32.7585   28.5143 H   0  0  0  0  0  0  0  0  0  0  0  0
   29.0553   35.8901   27.7483 C   0  0  0  0  0  0  0  0  0  0  0  0
   29.9506   34.3906   29.4253 C   0  0  0  0  0  0  0  0  0  0  0  0
   29.6317   35.1091   30.1908 H   0  0  0  0  0  0  0  0  0  0  0  0
   30.1385   32.9431   29.9358 C   0  0  0  0  0  0  0  0  0  0  0  0
   30.9210   34.6838   29.0084 H   0  0  0  0  0  0  0  0  0  0  0  0
   29.1980   32.3962   30.0729 H   0  0  0  0  0  0  0  0  0  0  0  0
   30.7653   32.3566   29.2516 H   0  0  0  0  0  0  0  0  0  0  0  0
   30.5992   33.0337   30.9276 H   0  0  0  0  0  0  0  0  0  0  0  0
   28.3350   36.1576   26.4795 C   0  0  0  0  0  0  0  0  0  0  0  0
   28.6358   36.5544   28.5139 H   0  0  0  0  0  0  0  0  0  0  0  0
   30.1303   36.0950   27.6695 H   0  0  0  0  0  0  0  0  0  0  0  0
   28.6372   37.1336   26.0829 H   0  0  0  0  0  0  0  0  0  0  0  0
   28.6740   35.4657   25.6980 H   0  0  0  0  0  0  0  0  0  0  0  0
   27.2508   35.9935   26.5072 H   0  0  0  0  0  0  0  0  0  0  0  0
  1  2  2  0  0  0  0
  1  3  1  0  0  0  0
  1  4  1  0  0  0  0
  3  6  1  0  0  0  0
  3  7  1  0  0  0  0
  3  8  1  0  0  0  0
  4  5  1  0  0  0  0
  4  9  1  0  0  0  0
  4 10  1  0  0  0  0
  5 11  1  0  0  0  0
  5 12  1  0  0  0  0
  5 13  1  0  0  0  0
 12 14  1  0  0  0  0
 12 15  1  0  0  0  0
 14 22  1  0  0  0  0
 14 23  1  0  0  0  0
 14 24  1  0  0  0  0
 15 16  1  0  0  0  0
 15 17  1  0  0  0  0
 15 18  1  0  0  0  0
 17 19  1  0  0  0  0
 17 20  1  0  0  0  0
 17 21  1  0  0  0  0
 22 25  1  0  0  0  0
 22 26  1  0  0  0  0
 22 27  1  0  0  0  0
M  END
$$$$
