dapp
 OpenBabel06102322103D

 28 27  0  0  0  0  0  0  0  0999 V2000
   31.1628   31.3283   28.1007 C   0  0  0  0  0  0  0  0  0  0  0  0
   32.1937   30.9649   27.5072 O   0  0  0  0  0  0  0  0  0  0  0  0
   31.1371   32.6971   28.7903 C   0  0  0  0  0  0  0  0  0  0  0  0
   29.9491   30.4513   28.2773 C   0  0  0  0  0  0  0  0  0  0  0  0
   29.9942   29.1477   27.5205 C   0  0  0  0  0  0  0  0  0  0  0  0
   28.9300   28.1047   27.7399 N   0  3  0  0  0  0  0  0  0  0  0  0
   27.4707   28.5643   27.5859 C   0  0  0  0  0  0  0  0  0  0  0  0
   29.2600   26.9089   26.8173 C   0  0  0  0  0  0  0  0  0  0  0  0
   28.8772   25.5714   27.5437 C   0  0  0  0  0  0  0  0  0  0  0  0
   26.8391   28.9338   26.1615 C   0  0  0  0  0  0  0  0  0  0  0  0
   30.0747   32.8391   29.0267 H   0  0  0  0  0  0  0  0  0  0  0  0
   31.7752   32.5837   29.6744 H   0  0  0  0  0  0  0  0  0  0  0  0
   31.4493   33.5227   28.1391 H   0  0  0  0  0  0  0  0  0  0  0  0
   29.7836   30.2897   29.3491 H   0  0  0  0  0  0  0  0  0  0  0  0
   29.1524   31.0925   27.8817 H   0  0  0  0  0  0  0  0  0  0  0  0
   30.1532   29.3566   26.4621 H   0  0  0  0  0  0  0  0  0  0  0  0
   30.9749   28.7388   27.7672 H   0  0  0  0  0  0  0  0  0  0  0  0
   29.1046   27.7317   28.6843 H   0  0  0  0  0  0  0  0  0  0  0  0
   26.8444   27.8397   28.1101 H   0  0  0  0  0  0  0  0  0  0  0  0
   27.4740   29.4567   28.2127 H   0  0  0  0  0  0  0  0  0  0  0  0
   28.8090   27.0248   25.8304 H   0  0  0  0  0  0  0  0  0  0  0  0
   30.3405   26.7818   26.7348 H   0  0  0  0  0  0  0  0  0  0  0  0
   29.5821   24.7430   27.4003 H   0  0  0  0  0  0  0  0  0  0  0  0
   28.9480   25.7598   28.6215 H   0  0  0  0  0  0  0  0  0  0  0  0
   27.8430   25.2645   27.3415 H   0  0  0  0  0  0  0  0  0  0  0  0
   26.6309   27.9882   25.6447 H   0  0  0  0  0  0  0  0  0  0  0  0
   25.9298   29.5452   26.2189 H   0  0  0  0  0  0  0  0  0  0  0  0
   27.6091   29.4320   25.5583 H   0  0  0  0  0  0  0  0  0  0  0  0
  1  2  2  0  0  0  0
  1  3  1  0  0  0  0
  1  4  1  0  0  0  0
  3 11  1  0  0  0  0
  3 12  1  0  0  0  0
  3 13  1  0  0  0  0
  4  5  1  0  0  0  0
  4 14  1  0  0  0  0
  4 15  1  0  0  0  0
  5  6  1  0  0  0  0
  5 16  1  0  0  0  0
  5 17  1  0  0  0  0
  6  7  1  0  0  0  0
  6  8  1  0  0  0  0
  6 18  1  0  0  0  0
  7 10  1  0  0  0  0
  7 19  1  0  0  0  0
  7 20  1  0  0  0  0
  8  9  1  0  0  0  0
  8 21  1  0  0  0  0
  8 22  1  0  0  0  0
  9 23  1  0  0  0  0
  9 24  1  0  0  0  0
  9 25  1  0  0  0  0
 10 26  1  0  0  0  0
 10 27  1  0  0  0  0
 10 28  1  0  0  0  0
M  CHG  1   6   1
M  END
$$$$
