dmso
 OpenBabel06102322103D

 10  9  0  0  0  0  0  0  0  0999 V2000
   32.0044   33.2592   28.8556 S   0  0  0  0  0  0  0  0  0  0  0  0
   32.3677   32.1128   27.9929 O   0  0  0  0  0  0  0  0  0  0  0  0
   31.0179   32.5515   30.1855 C   0  0  0  0  0  0  0  0  0  0  0  0
   33.4577   33.7169   29.8438 C   0  0  0  0  0  0  0  0  0  0  0  0
   31.5068   31.7945   30.8117 H   0  0  0  0  0  0  0  0  0  0  0  0
   30.6913   33.3400   30.8745 H   0  0  0  0  0  0  0  0  0  0  0  0
   30.1842   32.0587   29.6691 H   0  0  0  0  0  0  0  0  0  0  0  0
   33.0305   34.1843   30.7398 H   0  0  0  0  0  0  0  0  0  0  0  0
   33.9634   32.8007   30.1705 H   0  0  0  0  0  0  0  0  0  0  0  0
   34.0698   34.3412   29.1813 H   0  0  0  0  0  0  0  0  0  0  0  0
  1  2  2  0  0  0  0
  1  3  1  0  0  0  0
  1  4  1  0  0  0  0
  3  5  1  0  0  0  0
  3  6  1  0  0  0  0
  3  7  1  0  0  0  0
  4  8  1  0  0  0  0
  4  9  1  0  0  0  0
  4 10  1  0  0  0  0
M  END
$$$$
