prp
 OpenBabel06102322103D

 11 10  0  0  0  0  0  0  0  0999 V2000
   32.6046   33.0188   29.2194 C   0  0  0  0  0  0  0  0  0  0  0  0
   33.2931   32.0991   28.7771 O   0  0  0  0  0  0  0  0  0  0  0  0
   31.2892   32.7522   30.0256 C   0  0  0  0  0  0  0  0  0  0  0  0
   32.8808   34.4741   28.8071 C   0  0  0  0  0  0  0  0  0  0  0  0
   31.9044   35.0012   27.8843 O   0  0  0  0  0  0  0  0  0  0  0  0
   31.1612   33.5755   30.7393 H   0  0  0  0  0  0  0  0  0  0  0  0
   30.4577   32.7676   29.3113 H   0  0  0  0  0  0  0  0  0  0  0  0
   31.3168   31.7253   30.4120 H   0  0  0  0  0  0  0  0  0  0  0  0
   33.0193   35.1297   29.6761 H   0  0  0  0  0  0  0  0  0  0  0  0
   33.8087   34.4582   28.2225 H   0  0  0  0  0  0  0  0  0  0  0  0
   31.5250   34.3063   27.3186 H   0  0  0  0  0  0  0  0  0  0  0  0
  1  2  2  0  0  0  0
  1  3  1  0  0  0  0
  1  4  1  0  0  0  0
  3  6  1  0  0  0  0
  3  7  1  0  0  0  0
  3  8  1  0  0  0  0
  4  5  1  0  0  0  0
  4  9  1  0  0  0  0
  4 10  1  0  0  0  0
  5 11  1  0  0  0  0
M  END
$$$$
