thi
 OpenBabel06102322103D

 14 14  0  0  0  0  0  0  0  0999 V2000
   33.2770   32.6063   28.9238 S   0  0  0  0  0  0  0  0  0  0  0  0
   33.3961   31.4615   27.9290 O   0  0  0  0  0  0  0  0  0  0  0  0
   32.4575   34.0053   28.0762 C   0  0  0  0  0  0  0  0  0  0  0  0
   31.8020   32.2185   29.8533 C   0  0  0  0  0  0  0  0  0  0  0  0
   30.7073   32.9606   29.3672 C   0  0  0  0  0  0  0  0  0  0  0  0
   32.0860   33.7280   27.0818 H   0  0  0  0  0  0  0  0  0  0  0  0
   31.2938   34.3189   28.9758 C   0  0  0  0  0  0  0  0  0  0  0  0
   33.2347   34.7777   28.0191 H   0  0  0  0  0  0  0  0  0  0  0  0
   31.6922   31.1328   29.9585 H   0  0  0  0  0  0  0  0  0  0  0  0
   32.0531   32.6994   30.8068 H   0  0  0  0  0  0  0  0  0  0  0  0
   30.5561   34.9091   28.4188 H   0  0  0  0  0  0  0  0  0  0  0  0
   31.6335   34.9749   29.7867 H   0  0  0  0  0  0  0  0  0  0  0  0
   30.2296   32.5194   28.4842 H   0  0  0  0  0  0  0  0  0  0  0  0
   29.9724   33.0935   30.1707 H   0  0  0  0  0  0  0  0  0  0  0  0
  1  2  2  0  0  0  0
  1  3  1  0  0  0  0
  1  4  1  0  0  0  0
  3  6  1  0  0  0  0
  3  7  1  0  0  0  0
  3  8  1  0  0  0  0
  4  5  1  0  0  0  0
  4  9  1  0  0  0  0
  4 10  1  0  0  0  0
  5  7  1  0  0  0  0
  5 13  1  0  0  0  0
  5 14  1  0  0  0  0
  7 11  1  0  0  0  0
  7 12  1  0  0  0  0
M  END
$$$$
