2_cpd23
                    3D
 Schrodinger Suite 2024-2.
 36 38  0  0  1  0            999 V2000
   12.9662  -13.2840   19.4792 C   0  0  0  0  0  0
   12.8517  -13.2039   18.4083 H   0  0  0  0  0  0
   12.0518  -12.6665   20.3254 C   0  0  0  0  0  0
   11.2284  -12.1050   19.9092 H   0  0  0  0  0  0
   12.1926  -12.7685   21.7046 C   0  0  0  0  0  0
   13.2581  -13.5062   22.2527 C   0  0  0  0  0  0
   14.1854  -14.1175   21.3880 C   0  0  0  0  0  0
   14.0270  -14.0040   20.0131 C   0  0  0  0  0  0
   14.7359  -14.4806   19.3523 H   0  0  0  0  0  0
   15.5274  -15.0135   22.0354 Cl  0  0  0  0  0  0
   13.4380  -13.6641   23.7140 C   0  0  0  0  0  0
   13.1246  -14.7222   24.2329 O   0  0  0  0  0  0
   13.9831  -12.6422   24.4020 N   0  0  0  0  0  0
   14.1827  -11.8121   23.8624 H   0  0  0  0  0  0
   14.3110  -12.5710   25.7589 C   0  0  0  0  0  0
   14.3822  -13.6594   26.6495 C   0  0  0  0  0  0
   14.0957  -14.6499   26.3282 H   0  0  0  0  0  0
   14.8266  -13.4403   27.9489 C   0  0  0  0  0  0
   14.8910  -14.2706   28.6365 H   0  0  0  0  0  0
   15.1737  -12.2228   28.3570 N   0  0  0  0  0  0
   15.1150  -11.1624   27.5535 C   0  0  0  0  0  0
   14.7296  -11.3277   26.2224 C   0  0  0  0  0  0
   14.7565  -10.4849   25.5476 H   0  0  0  0  0  0
   15.5526   -9.9201   28.0258 N   0  0  0  0  0  0
   16.2255   -9.9359   28.7789 H   0  0  0  0  0  0
   15.1697   -8.6947   27.5802 C   0  0  0  0  0  0
   14.3549   -8.5371   26.6868 O   0  0  0  0  0  0
   15.8270   -7.5062   28.2357 C   0  0  1  0  0  0
   15.7798   -6.1409   27.5412 C   0  0  0  0  0  0
   15.2894   -6.0378   26.5732 H   0  0  0  0  0  0
   16.6433   -5.4771   27.5836 H   0  0  0  0  0  0
   14.9469   -6.3943   28.7980 C   0  0  1  0  0  0
   13.5685   -6.5374   28.6432 F   0  0  0  0  0  0
   11.0626  -11.9588   22.7329 Cl  0  0  0  0  0  0
   16.7330   -7.7519   28.7790 H   0  0  0  0  0  0
   15.2715   -5.9039   29.7136 H   0  0  0  0  0  0
  1  2  1  0  0  0
  1  3  1  0  0  0
  1  8  2  0  0  0
  3  4  1  0  0  0
  3  5  2  0  0  0
  5  6  1  0  0  0
  5 34  1  0  0  0
  6  7  2  0  0  0
  6 11  1  0  0  0
  7  8  1  0  0  0
  7 10  1  0  0  0
  8  9  1  0  0  0
 11 12  2  0  0  0
 11 13  1  0  0  0
 13 14  1  0  0  0
 13 15  1  0  0  0
 15 16  1  0  0  0
 15 22  2  0  0  0
 16 17  1  0  0  0
 16 18  2  0  0  0
 18 19  1  0  0  0
 18 20  1  0  0  0
 20 21  2  0  0  0
 21 22  1  0  0  0
 21 24  1  0  0  0
 22 23  1  0  0  0
 24 25  1  0  0  0
 24 26  1  0  0  0
 26 27  2  0  0  0
 26 28  1  0  0  0
 28 29  1  0  0  0
 28 32  1  0  0  0
 28 35  1  0  0  0
 29 30  1  0  0  0
 29 31  1  0  0  0
 29 32  1  0  0  0
 32 33  1  0  0  0
 32 36  1  0  0  0
M  END
> <i_m_Source_File_Index>
1

> <s_m_Source_File>
2c23.sdf

> <s_m_Source_Path>
/Users/azimis/shpc/lsfe/TYK2

> <s_m_entry_id>
3

> <s_m_entry_name>
2c23.1

$$$$
