1_cpd41
                    3D
 Schrodinger Suite 2024-2.
 26 27  0  0  1  0            999 V2000
   13.2760  -13.0620   22.0340 C   0  0  0  0  0  0
   12.1370  -12.4170   21.5720 C   0  0  0  0  0  0
   11.7970  -12.4610   20.2180 C   0  0  0  0  0  0
   14.7060  -12.9920   27.7390 C   0  0  0  0  0  0
   13.6610  -12.9300   23.4770 C   0  0  0  0  0  0
   13.9570  -14.0250   25.6640 C   0  0  0  0  0  0
   14.0870  -15.2770   26.2900 C   0  0  0  0  0  0
   14.5140  -15.3480   27.6320 C   0  0  0  0  0  0
   14.2780  -12.8750   26.4110 C   0  0  0  0  0  0
   13.5840  -13.9900   24.2990 N   0  0  0  0  0  0
   14.8050  -14.2230   28.3190 N   0  0  0  0  0  0
   15.1020  -14.2940   29.2817 H   0  0  0  0  0  0
   14.1190  -13.7040   21.1270 C   0  0  0  0  0  0
   15.0110  -11.9570   28.3750 O   0  0  0  0  0  0
   14.0140  -11.8110   23.8220 O   0  0  0  0  0  0
   15.6080  -14.5220   21.6930 Cl  0  0  0  0  0  0
   13.7920  -13.7510   19.7690 C   0  0  0  0  0  0
   11.0950  -11.5550   22.7400 Cl  0  0  0  0  0  0
   12.6280  -13.1290   19.3160 C   0  0  0  0  0  0
   10.8943  -11.9795   19.8720 H   0  0  0  0  0  0
   13.8601  -16.1803   25.7432 H   0  0  0  0  0  0
   14.6104  -16.3077   28.1180 H   0  0  0  0  0  0
   14.1928  -11.8997   25.9551 H   0  0  0  0  0  0
   13.2314  -14.8716   23.9546 H   0  0  0  0  0  0
   14.4391  -14.2672   19.0753 H   0  0  0  0  0  0
   12.3697  -13.1641   18.2679 H   0  0  0  0  0  0
  1  2  2  0  0  0
  1  5  1  0  0  0
  1 13  1  0  0  0
  2  3  1  0  0  0
  2 18  1  0  0  0
  3 19  2  0  0  0
  3 20  1  0  0  0
  4  9  1  0  0  0
  4 11  1  0  0  0
  4 14  2  0  0  0
  5 10  1  0  0  0
  5 15  2  0  0  0
  6  7  1  0  0  0
  6  9  2  0  0  0
  6 10  1  0  0  0
  7  8  2  0  0  0
  7 21  1  0  0  0
  8 11  1  0  0  0
  8 22  1  0  0  0
  9 23  1  0  0  0
 10 24  1  0  0  0
 11 12  1  0  0  0
 13 16  1  0  0  0
 13 17  2  0  0  0
 17 19  1  0  0  0
 17 25  1  0  0  0
 19 26  1  0  0  0
M  END
> <i_m_Source_File_Index>
1

> <s_m_Source_File>
1c41.sdf

> <s_m_Source_Path>
/Users/azimis/shpc/lsfe/TYK2_inputs

> <s_m_entry_id>
42

> <s_m_entry_name>
1c41.1

$$$$
