1_cpd46
                    3D
 Schrodinger Suite 2024-2.
 36 38  0  0  1  0            999 V2000
   13.2563  -13.5590   22.2350 C   0  0  0  0  0  0
   14.1674  -14.1348   21.3288 C   0  0  0  0  0  0
   13.9534  -14.0570   19.9591 C   0  0  0  0  0  0
   14.6467  -14.5211   19.2733 H   0  0  0  0  0  0
   14.2636  -12.6805   25.7620 C   0  0  0  0  0  0
   13.5160  -13.7538   23.6770 C   0  0  0  0  0  0
   14.3518  -13.8088   26.6049 C   0  0  0  0  0  0
   14.0602  -14.7861   26.2496 H   0  0  0  0  0  0
   14.8230  -13.6362   27.9054 C   0  0  0  0  0  0
   14.9235  -14.4913   28.5575 H   0  0  0  0  0  0
   12.1377  -12.8649   21.7363 C   0  0  0  0  0  0
   12.8450  -13.3803   19.4784 C   0  0  0  0  0  0
   12.6785  -13.3110   18.4136 H   0  0  0  0  0  0
   11.9428  -12.7881   20.3608 C   0  0  0  0  0  0
   11.0825  -12.2634   19.9721 H   0  0  0  0  0  0
   15.5928  -14.9077   21.9249 Cl  0  0  0  0  0  0
   13.4021  -14.8922   24.1426 O   0  0  0  0  0  0
   13.9110  -12.6989   24.4099 N   0  0  0  0  0  0
   13.9587  -11.8138   23.9257 H   0  0  0  0  0  0
   15.1502  -12.4233   28.3493 N   0  0  0  0  0  0
   15.0745  -11.3251   27.5964 C   0  0  0  0  0  0
   14.6487  -11.4409   26.2703 C   0  0  0  0  0  0
   14.6180  -10.5666   25.6369 H   0  0  0  0  0  0
   15.4478  -10.0767   28.1412 N   0  0  0  0  0  0
   16.0490  -10.0806   28.9528 H   0  0  0  0  0  0
   15.0538   -8.8627   27.6491 C   0  0  0  0  0  0
   14.3398   -8.7850   26.6661 O   0  0  0  0  0  0
   15.5130   -7.5785   28.3279 C   0  0  0  0  0  0
   16.1466   -8.1335   29.0198 H   0  0  0  0  0  0
   15.6847   -6.3115   27.4788 C   0  0  0  0  0  0
   16.5032   -5.6226   27.6877 H   0  0  0  0  0  0
   15.5056   -6.3477   26.4042 H   0  0  0  0  0  0
   14.5136   -6.4214   28.4511 C   0  0  0  0  0  0
   13.4987   -6.5357   28.0703 H   0  0  0  0  0  0
   14.4963   -5.8107   29.3538 H   0  0  0  0  0  0
   11.0138  -12.0539   22.7836 Cl  0  0  0  0  0  0
  1  2  2  0  0  0
  1  6  1  0  0  0
  1 11  1  0  0  0
  2  3  1  0  0  0
  2 16  1  0  0  0
  3  4  1  0  0  0
  3 12  2  0  0  0
  5  7  1  0  0  0
  5 18  1  0  0  0
  5 22  2  0  0  0
  6 17  2  0  0  0
  6 18  1  0  0  0
  7  8  1  0  0  0
  7  9  2  0  0  0
  9 10  1  0  0  0
  9 20  1  0  0  0
 11 14  2  0  0  0
 11 36  1  0  0  0
 12 13  1  0  0  0
 12 14  1  0  0  0
 14 15  1  0  0  0
 18 19  1  0  0  0
 20 21  2  0  0  0
 21 22  1  0  0  0
 21 24  1  0  0  0
 22 23  1  0  0  0
 24 25  1  0  0  0
 24 26  1  0  0  0
 26 27  2  0  0  0
 26 28  1  0  0  0
 28 29  1  0  0  0
 28 30  1  0  0  0
 28 33  1  0  0  0
 30 31  1  0  0  0
 30 32  1  0  0  0
 30 33  1  0  0  0
 33 34  1  0  0  0
 33 35  1  0  0  0
M  END
> <i_m_Source_File_Index>
1

> <s_m_Source_File>
1c46.sdf

> <s_m_Source_Path>
/Users/azimis/shpc/lsfe/TYK2

> <s_m_entry_id>
2

> <s_m_entry_name>
1c46.1

$$$$
